NDPIS/Case2/WithDG/Case2_WithDG_Power_elem_kVA.txt

CIRCUIT ELEMENT POWER FLOW

(Power Flow into element from indicated Bus)

Power Delivery Elements

  Bus     Phase     kW     +j   kvar         kVA         PF

ELEMENT = "Vsource.SOURCE"
SOURCEBUS     1     -1411.7 +j   -545.3     1513.4       0.9328
SOURCEBUS     2     -1411.7 +j   -545.3     1513.4       0.9328
SOURCEBUS     3     -1411.7 +j   -545.3     1513.4       0.9328
   TERMINAL TOTAL . -4235.1 +j  -1636.0     4540.1       0.9328
SOURCEBUS     0         0.0 +j      0.0        0.0       1.0000
SOURCEBUS     0         0.0 +j      0.0        0.0       1.0000
SOURCEBUS     0         0.0 +j      0.0        0.0       1.0000
   TERMINAL TOTAL .     0.0 +j      0.0        0.0       1.0000

ELEMENT = "Line.01"
SOURCEBUS     1      1411.7 +j    545.3     1513.4       0.9328
SOURCEBUS     2      1411.7 +j    545.3     1513.4       0.9328
SOURCEBUS     3      1411.7 +j    545.3     1513.4       0.9328
   TERMINAL TOTAL .  4235.1 +j   1636.0     4540.1       0.9328
2             1     -1399.5 +j   -529.0     1496.1       0.9354
2             2     -1399.5 +j   -529.0     1496.1       0.9354
2             3     -1399.5 +j   -529.0     1496.1       0.9354
   TERMINAL TOTAL . -4198.5 +j  -1587.1     4488.4       0.9354

ELEMENT = "Line.02"
2             1      1399.5 +j    529.0     1496.1       0.9354
2             2      1399.5 +j    529.0     1496.1       0.9354
2             3      1399.5 +j    529.0     1496.1       0.9354
   TERMINAL TOTAL .  4198.5 +j   1587.1     4488.4       0.9354
3             1     -1395.2 +j   -517.5     1488.1       0.9376
3             2     -1395.2 +j   -517.5     1488.1       0.9376
3             3     -1395.2 +j   -517.5     1488.1       0.9376
   TERMINAL TOTAL . -4185.5 +j  -1552.6     4464.2       0.9376

ELEMENT = "Line.03"
3             1       878.5 +j    284.2      923.3       0.9514
3             2       878.5 +j    284.2      923.3       0.9514
3             3       878.5 +j    284.2      923.3       0.9514
   TERMINAL TOTAL .  2635.5 +j    852.6     2770.0       0.9514
4             1      -876.8 +j   -279.8      920.4       0.9527
4             2      -876.8 +j   -279.8      920.4       0.9527
4             3      -876.8 +j   -279.8      920.4       0.9527
   TERMINAL TOTAL . -2630.5 +j   -839.4     2761.2       0.9527

ELEMENT = "Line.04"
4             1       360.2 +j     46.5      363.2       0.9918
4             2       360.2 +j     46.5      363.2       0.9918
4             3       360.2 +j     46.5      363.2       0.9918
   TERMINAL TOTAL .  1080.5 +j    139.4     1089.5       0.9918
5             1      -359.9 +j    -46.0      362.8       0.9919
5             2      -359.9 +j    -46.0      362.8       0.9919
5             3      -359.9 +j    -46.0      362.8       0.9919
   TERMINAL TOTAL . -1079.6 +j   -138.1     1088.4       0.9919

ELEMENT = "Line.05"
5             1       359.9 +j     46.0      362.8       0.9919
5             2       359.9 +j     46.0      362.8       0.9919
5             3       359.9 +j     46.0      362.8       0.9919
   TERMINAL TOTAL .  1079.6 +j    138.1     1088.4       0.9919
6             1      -358.2 +j    -41.6      360.6       0.9933
6             2      -358.2 +j    -41.6      360.6       0.9933
6             3      -358.2 +j    -41.6      360.6       0.9933
   TERMINAL TOTAL . -1074.5 +j   -124.7     1081.8       0.9933

ELEMENT = "Line.06"
6             1      -108.5 +j   -111.5      155.6       0.6973
6             2      -108.5 +j   -111.5      155.6       0.6973
6             3      -108.5 +j   -111.5      155.6       0.6973
   TERMINAL TOTAL .  -325.4 +j   -334.5      466.7       0.6973
7             1       108.6 +j    112.0      156.0       0.6963
7             2       108.6 +j    112.0      156.0       0.6963
7             3       108.6 +j    112.0      156.0       0.6963
   TERMINAL TOTAL .   325.9 +j    335.9      468.1       0.6963

ELEMENT = "Line.07"
7             1      -108.6 +j     74.5      131.7      -0.8247
7             2      -108.6 +j     74.5      131.7      -0.8247
7             3      -108.6 +j     74.5      131.7      -0.8247
   TERMINAL TOTAL .  -325.9 +j    223.5      395.2      -0.8247
8             1       108.7 +j    -74.4      131.7      -0.8254
8             2       108.7 +j    -74.4      131.7      -0.8254
8             3       108.7 +j    -74.4      131.7      -0.8254
   TERMINAL TOTAL .   326.1 +j   -223.1      395.1      -0.8254

ELEMENT = "Line.08"
8             1      -333.0 +j      0.8      333.0      -1.0000
8             2      -333.0 +j      0.8      333.0      -1.0000
8             3      -333.0 +j      0.8      333.0      -1.0000
   TERMINAL TOTAL .  -999.1 +j      2.3      999.1      -1.0000
9             1       333.3 +j     -0.0      333.3      -1.0000
9             2       333.3 +j     -0.0      333.3      -1.0000
9             3       333.3 +j     -0.0      333.3      -1.0000
   TERMINAL TOTAL .  1000.0 +j     -0.0     1000.0      -1.0000

ELEMENT = "Capacitor.C1"
7             1         0.0 +j   -186.5      186.5      -0.0000
7             2        -0.0 +j   -186.5      186.5       0.0000
7             3        -0.0 +j   -186.5      186.5       0.0000
   TERMINAL TOTAL .    -0.0 +j   -559.5      559.5       0.0000
7             0         0.0 +j      0.0        0.0       1.0000
7             0         0.0 +j      0.0        0.0       1.0000
7             0         0.0 +j      0.0        0.0       1.0000
   TERMINAL TOTAL .     0.0 +j      0.0        0.0       1.0000

= = = = = = = = = = = = = = = = = = =  = = = = = = = = = = =  = =

Power Conversion Elements

  Bus     Phase     kW   +j  kvar         kVA         PF

ELEMENT = "Load.1"
3             1     516.7 +j  233.3      566.9       0.9114
3             2     516.7 +j  233.3      566.9       0.9114
3             3     516.7 +j  233.3      566.9       0.9114
  TERMINAL TOTAL  .  1550.0 +j    700.0     1700.7       0.9114

ELEMENT = "Load.2"
4             1     516.7 +j  233.3      566.9       0.9114
4             2     516.7 +j  233.3      566.9       0.9114
4             3     516.7 +j  233.3      566.9       0.9114
  TERMINAL TOTAL  .  1550.0 +j    700.0     1700.7       0.9114

ELEMENT = "Load.3"
6             1     466.7 +j  153.1      491.1       0.9502
6             2     466.7 +j  153.1      491.1       0.9502
6             3     466.7 +j  153.1      491.1       0.9502
  TERMINAL TOTAL  .  1400.0 +j    459.2     1473.4       0.9502

ELEMENT = "Load.4"
8             1     224.3 +j   73.6      236.1       0.9502
8             2     224.3 +j   73.6      236.1       0.9502
8             3     224.3 +j   73.6      236.1       0.9502
  TERMINAL TOTAL  .   673.0 +j    220.7      708.3       0.9502

ELEMENT = "Load.5"
9             1    -333.3 +j    0.0      333.3      -1.0000
9             2    -333.3 +j    0.0      333.3      -1.0000
9             3    -333.3 +j    0.0      333.3      -1.0000
  TERMINAL TOTAL  . -1000.0 +j      0.0     1000.0      -1.0000


Total Circuit Losses =   62.2 +j  115.5
