NDPIS/Case2/WithDG/Case2_WithDG_VLN_Node.Txt

LINE-GROUND and LINE-LINE VOLTAGES BY BUS & NODE

Bus       Node    VLN (kV)   Angle      pu     Base kV    Node-Node   VLL (kV)  Angle      pu

SOURCEBUS 1       6.5115 /_   -0.9   0.98932    11.400        1-2     11.278 /_   29.1   0.98932
   -      2       6.5115 /_ -120.9   0.98932    11.400        2-3     11.278 /_  -90.9   0.98932
   -      3       6.5115 /_  119.1   0.98932    11.400        3-1     11.278 /_  149.1   0.98932
2 ....... 1       6.4374 /_   -1.3   0.97807    11.400        1-2      11.15 /_   28.7   0.97807
   -      2       6.4374 /_ -121.3   0.97807    11.400        2-3      11.15 /_  -91.3   0.97807
   -      3       6.4374 /_  118.7   0.97807    11.400        3-1      11.15 /_  148.7   0.97807
3 ....... 1       6.4026 /_   -1.6   0.97278    11.400        1-2      11.09 /_   28.4   0.97278
   -      2       6.4026 /_ -121.6   0.97278    11.400        2-3      11.09 /_  -91.6   0.97278
   -      3       6.4026 /_  118.4   0.97278    11.400        3-1      11.09 /_  148.4   0.97278
4 ....... 1       6.3822 /_   -1.9   0.96968    11.400        1-2     11.054 /_   28.1   0.96968
   -      2       6.3822 /_ -121.9   0.96968    11.400        2-3     11.054 /_  -91.9   0.96968
   -      3       6.3822 /_  118.1   0.96968    11.400        3-1     11.054 /_  148.1   0.96968
5 ....... 1       6.3759 /_   -1.9   0.96871    11.400        1-2     11.043 /_   28.1   0.96871
   -      2       6.3759 /_ -121.9   0.96871    11.400        2-3     11.043 /_  -91.9   0.96871
   -      3       6.3759 /_  118.1   0.96871    11.400        3-1     11.043 /_  148.1   0.96871
6 ....... 1       6.3369 /_   -2.6   0.96279    11.400        1-2     10.976 /_   27.4   0.96279
   -      2       6.3369 /_ -122.6   0.96279    11.400        2-3     10.976 /_  -92.6   0.96279
   -      3       6.3369 /_  117.4   0.96279    11.400        3-1     10.976 /_  147.4   0.96279
7 ....... 1       6.3556 /_   -2.5   0.96564    11.400        1-2     11.008 /_   27.5   0.96564
   -      2       6.3556 /_ -122.5   0.96564    11.400        2-3     11.008 /_  -92.5   0.96564
   -      3       6.3556 /_  117.5   0.96564    11.400        3-1     11.008 /_  147.5   0.96564
8 ....... 1       6.3538 /_   -2.4   0.96536    11.400        1-2     11.005 /_   27.6   0.96536
   -      2       6.3538 /_ -122.4   0.96536    11.400        2-3     11.005 /_  -92.4   0.96536
   -      3       6.3538 /_  117.6   0.96536    11.400        3-1     11.005 /_  147.6   0.96536
9 ....... 1       6.3594 /_   -2.3    0.9662    11.400        1-2     11.015 /_   27.7    0.9662
   -      2       6.3594 /_ -122.3    0.9662    11.400        2-3     11.015 /_  -92.3    0.9662
   -      3       6.3594 /_  117.7    0.9662    11.400        3-1     11.015 /_  147.7    0.9662
